** Case 1: single C3D8 Hex8, trilinear displacement
** Full-node displacement boundary benchmark
** FLAT input: no *Part/*Assembly/*Instance, so boundary node labels are plain integers.
*Heading
Case 1: single C3D8 Hex8, trilinear displacement
*Preprint, echo=NO, model=NO, history=NO, contact=NO
*Node
1, 0, 0, 0
2, 1, 0, 0
3, 1, 1, 0
4, 0, 1, 0
5, 0, 0, 1
6, 1, 0, 1
7, 1, 1, 1
8, 0, 1, 1
*Element, type=C3D8, elset=EALL
1, 1, 2, 3, 4, 5, 6, 7, 8
*Material, name=MAT_A
*Elastic
210000, 0.3
*Solid Section, elset=EALL, material=MAT_A
,
*Nset, nset=ALLNODES
1, 2, 3, 4, 5, 6, 7, 8
*Step, name=Step-1, nlgeom=NO
*Static
1., 1., 1e-05, 1.
*Boundary, OP=NEW
1, 1, 1, 0
1, 2, 2, 0
1, 3, 3, 0
2, 1, 1, 0.001
2, 2, 2, 0
2, 3, 3, 0
3, 1, 1, 0.003
3, 2, 2, -0.0005
3, 3, 3, 0
4, 1, 1, 0
4, 2, 2, -0.0005
4, 3, 3, 0
5, 1, 1, 0
5, 2, 2, 0
5, 3, 3, 0.0008
6, 1, 1, 0.002
6, 2, 2, 0
6, 3, 3, 0.0018
7, 1, 1, 0.004
7, 2, 2, 0.0005
** ... 4 like lines cut
** Abaqus normally stores S at integration points in the ODB.
** For comparison, extrapolate in odbAccess/CAE to ELEMENT_NODAL, then average by your own region/cluster rules.
*Output, field, frequency=1
*Node Output
U, RF
*Element Output, directions=YES
S, E
*End Step
