** Case 2: single C3D4 Tet4, linear displacement
** Full-node displacement boundary benchmark
** FLAT input: no *Part/*Assembly/*Instance, so boundary node labels are plain integers.
*Heading
Case 2: single C3D4 Tet4, linear displacement
*Preprint, echo=NO, model=NO, history=NO, contact=NO
*Node
1, 0, 0, 0
2, 1, 0, 0
3, 0, 1, 0
4, 0, 0, 1
*Element, type=C3D4, elset=EALL
1, 1, 2, 3, 4
*Material, name=MAT_A
*Elastic
210000, 0.3
*Solid Section, elset=EALL, material=MAT_A
,
*Nset, nset=ALLNODES
1, 2, 3, 4
*Step, name=Step-1, nlgeom=NO
*Static
1., 1., 1e-05, 1.
*Boundary, OP=NEW
1, 1, 1, 0
1, 2, 2, 0
1, 3, 3, 0
2, 1, 1, 0.001
2, 2, 2, 0.0003
2, 3, 3, 0.0002
3, 1, 1, 0.0002
3, 2, 2, -0.0007
3, 3, 3, 0
4, 1, 1, 0
4, 2, 2, 0.0004
4, 3, 3, 0.0005
** Abaqus normally stores S at integration points in the ODB.
** For comparison, extrapolate in odbAccess/CAE to ELEMENT_NODAL, then average by your own region/cluster rules.
*Output, field, frequency=1
*Node Output
U, RF
*Element Output, directions=YES
S, E
*End Step
