** Case 3: single C3D10 Tet10, quadratic displacement
** Full-node displacement boundary benchmark
** FLAT input: no *Part/*Assembly/*Instance, so boundary node labels are plain integers.
*Heading
Case 3: single C3D10 Tet10, quadratic displacement
*Preprint, echo=NO, model=NO, history=NO, contact=NO
*Node
1, 0, 0, 0
2, 1, 0, 0
3, 0, 1, 0
4, 0, 0, 1
5, 0.5, 0, 0
6, 0.5, 0.5, 0
7, 0, 0.5, 0
8, 0, 0, 0.5
9, 0.5, 0, 0.5
10, 0, 0.5, 0.5
*Element, type=C3D10, elset=EALL
1, 1, 2, 3, 4, 5, 6, 7, 8, 9, 10
*Material, name=MAT_A
*Elastic
210000, 0.3
*Solid Section, elset=EALL, material=MAT_A
,
*Nset, nset=ALLNODES
1, 2, 3, 4, 5, 6, 7, 8, 9, 10
*Step, name=Step-1, nlgeom=NO
*Static
1., 1., 1e-05, 1.
*Boundary, OP=NEW
1, 1, 1, 0
1, 2, 2, 0
1, 3, 3, 0
2, 1, 1, 0.001
2, 2, 2, 0
2, 3, 3, 0
3, 1, 1, 0.0004
3, 2, 2, -0.0006
3, 3, 3, 0
4, 1, 1, 0
4, 2, 2, 0.0005
4, 3, 3, 0.0007
5, 1, 1, 0.0005
5, 2, 2, 0
5, 3, 3, 0
6, 1, 1, 0.001075
6, 2, 2, -0.0003
6, 3, 3, 0.0001
7, 1, 1, 0.0002
7, 2, 2, -0.0003
** ... 10 like lines cut
** Abaqus normally stores S at integration points in the ODB.
** For comparison, extrapolate in odbAccess/CAE to ELEMENT_NODAL, then average by your own region/cluster rules.
*Output, field, frequency=1
*Node Output
U, RF
*Element Output, directions=YES
S, E
*End Step
