** Case 7: threshold split, same region but large stress jump
** Full-node displacement boundary benchmark
** FLAT input: no *Part/*Assembly/*Instance, so boundary node labels are plain integers.
*Heading
Case 7: threshold split, same region but large stress jump
** Displacement is continuous at x=1, but strain/stress gradient differs strongly between left and right elements.
** Expected project behavior: same region, but shared nodes split by mises variation threshold.
*Preprint, echo=NO, model=NO, history=NO, contact=NO
*Node
1, 0, 0, 0
2, 0, 1, 0
3, 0, 0, 1
4, 0, 1, 1
5, 1, 0, 0
6, 1, 1, 0
7, 1, 0, 1
8, 1, 1, 1
9, 2, 0, 0
10, 2, 1, 0
11, 2, 0, 1
12, 2, 1, 1
*Element, type=C3D8, elset=EALL
1, 1, 5, 6, 2, 3, 7, 8, 4
2, 5, 9, 10, 6, 7, 11, 12, 8
*Material, name=MAT_A
*Elastic
210000, 0.3
*Solid Section, elset=EALL, material=MAT_A
,
*Nset, nset=ALLNODES
1, 2, 3, 4, 5, 6, 7, 8, 9, 10, 11, 12
*Step, name=Step-1, nlgeom=NO
*Static
1., 1., 1e-05, 1.
*Boundary, OP=NEW
1, 1, 1, 0
1, 2, 2, 0
1, 3, 3, 0
2, 1, 1, 0
2, 2, 2, 0
2, 3, 3, 0
3, 1, 1, 0
3, 2, 2, 0
3, 3, 3, 0
4, 1, 1, 0
4, 2, 2, 0
4, 3, 3, 0
5, 1, 1, 0.0001
5, 2, 2, 0
5, 3, 3, 0
6, 1, 1, 0.0001
6, 2, 2, 0
6, 3, 3, 0
7, 1, 1, 0.0001
7, 2, 2, 0
** ... 16 like lines cut
** Abaqus normally stores S at integration points in the ODB.
** For comparison, extrapolate in odbAccess/CAE to ELEMENT_NODAL, then average by your own region/cluster rules.
*Output, field, frequency=1
*Node Output
U, RF
*Element Output, directions=YES
S, E
*End Step
