** Case 5A: cube split into six C3D4 Tet4 elements
** Full-node displacement boundary benchmark
** FLAT input: no *Part/*Assembly/*Instance, so boundary node labels are plain integers.
*Heading
Case 5A: cube split into six C3D4 Tet4 elements
** Shared-node averaging benchmark for Tet4. Element stress is constant within each Tet4; nodal differences come from neighboring elements.
*Preprint, echo=NO, model=NO, history=NO, contact=NO
*Node
1, 0, 0, 0
2, 1, 0, 0
3, 1, 1, 0
4, 0, 1, 0
5, 0, 0, 1
6, 1, 0, 1
7, 1, 1, 1
8, 0, 1, 1
*Element, type=C3D4, elset=EALL
1, 1, 2, 3, 7
2, 1, 3, 4, 7
3, 1, 4, 8, 7
4, 1, 8, 5, 7
5, 1, 5, 6, 7
6, 1, 6, 2, 7
*Material, name=MAT_A
*Elastic
210000, 0.3
*Solid Section, elset=EALL, material=MAT_A
,
*Nset, nset=ALLNODES
1, 2, 3, 4, 5, 6, 7, 8
*Step, name=Step-1, nlgeom=NO
*Static
1., 1., 1e-05, 1.
*Boundary, OP=NEW
1, 1, 1, 0
1, 2, 2, 0
1, 3, 3, 0
2, 1, 1, 0.001
2, 2, 2, 0
2, 3, 3, 0
3, 1, 1, 0.002
3, 2, 2, 0.0005
3, 3, 3, 0
4, 1, 1, 0
4, 2, 2, 0.0005
4, 3, 3, 0
5, 1, 1, 0
5, 2, 2, 0
5, 3, 3, 0.0003
6, 1, 1, 0.001
6, 2, 2, 0
6, 3, 3, 0.0009
7, 1, 1, 0.002
7, 2, 2, 0.0013
** ... 4 like lines cut
** Abaqus normally stores S at integration points in the ODB.
** For comparison, extrapolate in odbAccess/CAE to ELEMENT_NODAL, then average by your own region/cluster rules.
*Output, field, frequency=1
*Node Output
U, RF
*Element Output, directions=YES
S, E
*End Step
