** Case 5B: cube split into six C3D10 Tet10 elements
** Full-node displacement boundary benchmark
** FLAT input: no *Part/*Assembly/*Instance, so boundary node labels are plain integers.
*Heading
Case 5B: cube split into six C3D10 Tet10 elements
** Shared-node averaging benchmark for Tet10. Midside nodes are shared by unique edges.
*Preprint, echo=NO, model=NO, history=NO, contact=NO
*Node
1, 0, 0, 0
2, 1, 0, 0
3, 1, 1, 0
4, 0, 1, 0
5, 0, 0, 1
6, 1, 0, 1
7, 1, 1, 1
8, 0, 1, 1
9, 0.5, 0, 0
10, 1, 0.5, 0
11, 0.5, 0.5, 0
12, 0.5, 0.5, 0.5
13, 1, 0.5, 0.5
14, 1, 1, 0.5
15, 0.5, 1, 0
16, 0, 0.5, 0
17, 0.5, 1, 0.5
18, 0, 1, 0.5
19, 0, 0.5, 0.5
20, 0.5, 1, 1
** ... 7 like lines cut
*Element, type=C3D10, elset=EALL
1, 1, 2, 3, 7, 9, 10, 11, 12, 13, 14
2, 1, 3, 4, 7, 11, 15, 16, 12, 14, 17
3, 1, 4, 8, 7, 16, 18, 19, 12, 17, 20
4, 1, 8, 5, 7, 19, 21, 22, 12, 20, 23
5, 1, 5, 6, 7, 22, 24, 25, 12, 23, 26
6, 1, 6, 2, 7, 25, 27, 9, 12, 26, 13
*Material, name=MAT_A
*Elastic
210000, 0.3
*Solid Section, elset=EALL, material=MAT_A
,
*Nset, nset=ALLNODES
1, 2, 3, 4, 5, 6, 7, 8, 9, 10, 11, 12, 13, 14, 15, 16
17, 18, 19, 20, 21, 22, 23, 24, 25, 26, 27
*Step, name=Step-1, nlgeom=NO
*Static
1., 1., 1e-05, 1.
*Boundary, OP=NEW
1, 1, 1, 0
1, 2, 2, 0
1, 3, 3, 0
2, 1, 1, 0.001
2, 2, 2, 0
2, 3, 3, 0
3, 1, 1, 0.0029
3, 2, 2, -0.0006
3, 3, 3, 0.0004
4, 1, 1, 0.0004
4, 2, 2, -0.0006
4, 3, 3, 0
5, 1, 1, 0
5, 2, 2, 0.0005
5, 3, 3, 0.0007
6, 1, 1, 0.002
6, 2, 2, 0.0005
6, 3, 3, 0.0015
7, 1, 1, 0.0039
7, 2, 2, 0.0009
** ... 61 like lines cut
** Abaqus normally stores S at integration points in the ODB.
** For comparison, extrapolate in odbAccess/CAE to ELEMENT_NODAL, then average by your own region/cluster rules.
*Output, field, frequency=1
*Node Output
U, RF
*Element Output, directions=YES
S, E
*End Step
