*Heading
** Biomimetic four-finger hand, full-integration C3D20
*Node
1, -48, -16, 0
2, -44, -16, 0
3, -44, -13.33333333, 0
4, -48, -13.33333333, 0
5, -48, -16, 2
6, -44, -16, 2
7, -44, -13.33333333, 2
8, -48, -13.33333333, 2
9, -46, -16, 0
10, -44, -14.66666667, 0
11, -46, -13.33333333, 0
12, -48, -14.66666667, 0
13, -46, -16, 2
14, -44, -14.66666667, 2
15, -46, -13.33333333, 2
16, -48, -14.66666667, 2
17, -48, -16, 1
18, -44, -16, 1
19, -44, -13.33333333, 1
20, -48, -13.33333333, 1
** ... 70145 like lines cut
*Element, type=C3D20, elset=ALL_C3D20
1, 1, 2, 3, 4, 5, 6, 7, 8, 9, 10,
11, 12, 13, 14, 15, 16, 17, 18, 19, 20
2, 2, 21, 22, 3, 6, 23, 24, 7, 25, 26,
27, 10, 28, 29, 30, 14, 18, 31, 32, 19
3, 21, 33, 34, 22, 23, 35, 36, 24, 37, 38,
39, 26, 40, 41, 42, 29, 31, 43, 44, 32
4, 33, 45, 46, 34, 35, 47, 48, 36, 49, 50,
51, 38, 52, 53, 54, 41, 43, 55, 56, 44
5, 45, 57, 58, 46, 47, 59, 60, 48, 61, 62,
63, 50, 64, 65, 66, 53, 55, 67, 68, 56
6, 57, 69, 70, 58, 59, 71, 72, 60, 73, 74,
75, 62, 76, 77, 78, 65, 67, 79, 80, 68
7, 69, 81, 82, 70, 71, 83, 84, 72, 85, 86,
87, 74, 88, 89, 90, 77, 79, 91, 92, 80
8, 81, 93, 94, 82, 83, 95, 96, 84, 97, 98,
99, 86, 100, 101, 102, 89, 91, 103, 104, 92
9, 93, 105, 106, 94, 95, 107, 108, 96, 109, 110,
111, 98, 112, 113, 114, 101, 103, 115, 116, 104
10, 105, 117, 118, 106, 107, 119, 120, 108, 121, 122,
123, 110, 124, 125, 126, 113, 115, 127, 128, 116
** ... 29068 like lines cut
*Nset, nset=WRIST_FIXED
51383, 51384, 51385, 51386, 51391, 51392, 51393, 51394, 51403, 51404, 51407, 51408, 51409, 51415, 51416, 51419
51420, 51421, 51427, 51428, 51431, 51432, 51433, 51439, 51440, 51443, 51444, 51445, 51451, 51452, 51455, 51456
51457, 51463, 51464, 51467, 51468, 51469, 51475, 51476, 51479, 51480, 51481, 51487, 51488, 51491, 51492, 51493
51499, 51500, 51503, 51504, 51505, 51511, 51512, 51515, 51516, 51517, 51523, 51524, 51527, 51528, 51529, 51535
51536, 51539, 51540, 51541, 51547, 51548, 51551, 51552, 51553, 51559, 51560, 51563, 51564, 51565, 51571, 51572
51575, 51576, 51577, 51583, 51584, 51587, 51588, 51589, 51595, 51596, 51599, 51600, 51601, 51607, 51608, 51611
51612, 51613, 51619, 51620, 51623, 51624, 51625, 51631, 51632, 51635, 51636, 51637, 51643, 51645, 51646, 51650
51652, 51653, 51657, 51659, 51660, 51664, 51666, 51667, 51671, 51673, 51674, 51678, 51680, 51681, 51685, 51687
51688, 51692, 51694, 51695, 51699, 51701, 51702, 51706, 51708, 51709, 51713, 51715, 51716, 51720, 51722, 51723
51727, 51729, 51730, 51734, 51736, 51737, 51741, 51743, 51744, 51748, 51750, 51751, 51755, 51757, 51758, 51762
51764, 51765, 51769, 51771, 51772, 51776, 51777, 51780, 51781, 51782, 51788, 51790, 51791, 51795, 51797, 51798
51802, 51804, 51805, 51809, 51811, 51812, 51816, 51818, 51819, 51823, 51825, 51826, 51830, 51832, 51833, 51837
51839, 51840, 51844, 51846, 51847, 51851, 51853, 51854, 51858, 51860, 51861, 51865, 51867, 51868, 51872, 51874
51875, 51879, 51881, 51882, 51886, 51888, 51889, 51893, 51895, 51896, 51900, 51902, 51903, 51907, 51909, 51910
51914, 51916, 51917, 51921, 51922, 51925, 51926, 51927, 51933, 51935, 51936, 51940, 51942, 51943, 51947, 51949
51950, 51954, 51956, 51957, 51961, 51963, 51964, 51968, 51970, 51971, 51975, 51977, 51978, 51982, 51984, 51985
51989, 51991, 51992, 51996, 51998, 51999, 52003, 52005, 52006, 52010, 52012, 52013, 52017, 52019, 52020, 52024
52026, 52027, 52031, 52033, 52034, 52038, 52040, 52041, 52045, 52047, 52048, 52052, 52054, 52055, 52059, 52061
52062, 52066, 52067, 52070, 52071, 52072, 52078, 52080, 52081, 52085, 52087, 52088, 52092, 52094, 52095, 52099
52101, 52102, 52106, 52108, 52109, 52113, 52115, 52116, 52120, 52122, 52123, 52127, 52129, 52130, 52134, 52136
** ... 53 like lines cut
*Nset, nset=FINGER_1_BASE
36729, 36730, 36732, 36736, 36738, 36740, 36742, 36744, 36746, 36828, 36829, 36830, 36831, 36832, 36835, 36836
36837, 36839, 36840, 36841, 36843, 36844, 36845, 36927, 36928, 36929, 36930, 36931, 36934, 36935, 36936, 36938
36939, 36940, 36942, 36943, 36944, 37026, 37027, 37028, 37029, 37030, 37033, 37034, 37035, 37037, 37038, 37039
37041, 37042, 37043
*Nset, nset=TIP_1
61717, 61718, 61719, 61720, 61721, 61722, 61723, 61724, 61729, 61730, 61731, 61732, 61733, 61736, 61737, 61738
61739, 61740, 61743, 61744, 61745, 61746, 61747, 61750, 61751, 61752, 61753, 61754, 61757, 61758, 61759, 61761
61762, 61763, 61765, 61766, 61767, 61769, 61770, 61771, 61772, 61773, 61776, 61777, 61778, 61780, 61781, 61782
61784, 61785, 61786
*Nset, nset=FINGER_2_BASE
36752, 36756, 36758, 36760, 36762, 36764, 36766, 36768, 36770, 36851, 36852, 36855, 36856, 36857, 36859, 36860
36861, 36863, 36864, 36865, 36867, 36868, 36869, 36950, 36951, 36954, 36955, 36956, 36958, 36959, 36960, 36962
36963, 36964, 36966, 36967, 36968, 37049, 37050, 37053, 37054, 37055, 37057, 37058, 37059, 37061, 37062, 37063
37065, 37066, 37067
*Nset, nset=TIP_2
64486, 64487, 64488, 64489, 64490, 64491, 64492, 64493, 64498, 64499, 64500, 64501, 64502, 64505, 64506, 64507
64508, 64509, 64512, 64513, 64514, 64515, 64516, 64519, 64520, 64521, 64522, 64523, 64526, 64527, 64528, 64530
64531, 64532, 64534, 64535, 64536, 64538, 64539, 64540, 64541, 64542, 64545, 64546, 64547, 64549, 64550, 64551
64553, 64554, 64555
*Nset, nset=FINGER_3_BASE
36784, 36788, 36790, 36792, 36794, 36796, 36798, 36800, 36802, 36883, 36884, 36887, 36888, 36889, 36891, 36892
36893, 36895, 36896, 36897, 36899, 36900, 36901, 36982, 36983, 36986, 36987, 36988, 36990, 36991, 36992, 36994
36995, 36996, 36998, 36999, 37000, 37081, 37082, 37085, 37086, 37087, 37089, 37090, 37091, 37093, 37094, 37095
37097, 37098, 37099
*Nset, nset=TIP_3
67468, 67469, 67470, 67471, 67472, 67473, 67474, 67475, 67480, 67481, 67482, 67483, 67484, 67487, 67488, 67489
67490, 67491, 67494, 67495, 67496, 67497, 67498, 67501, 67502, 67503, 67504, 67505, 67508, 67509, 67510, 67512
67513, 67514, 67516, 67517, 67518, 67520, 67521, 67522, 67523, 67524, 67527, 67528, 67529, 67531, 67532, 67533
67535, 67536, 67537
*Nset, nset=FINGER_4_BASE
36808, 36812, 36814, 36816, 36818, 36820, 36822, 36824, 36826, 36907, 36908, 36911, 36912, 36913, 36915, 36916
36917, 36919, 36920, 36921, 36923, 36924, 36925, 37006, 37007, 37010, 37011, 37012, 37014, 37015, 37016, 37018
37019, 37020, 37022, 37023, 37024, 37105, 37106, 37109, 37110, 37111, 37113, 37114, 37115, 37117, 37118, 37119
37121, 37122, 37123
*Nset, nset=TIP_4
70095, 70096, 70097, 70098, 70099, 70100, 70101, 70102, 70107, 70108, 70109, 70110, 70111, 70114, 70115, 70116
70117, 70118, 70121, 70122, 70123, 70124, 70125, 70128, 70129, 70130, 70131, 70132, 70135, 70136, 70137, 70139
70140, 70141, 70143, 70144, 70145, 70147, 70148, 70149, 70150, 70151, 70154, 70155, 70156, 70158, 70159, 70160
70162, 70163, 70164
*Nset, nset=PALM_TOP
36457, 36458, 36459, 36460, 36461, 36462, 36463, 36464, 36469, 36470, 36471, 36472, 36473, 36476, 36477, 36478
36479, 36480, 36483, 36484, 36485, 36486, 36487, 36490, 36491, 36492, 36493, 36494, 36497, 36498, 36499, 36500
36501, 36504, 36505, 36506, 36507, 36508, 36511, 36512, 36513, 36514, 36515, 36518, 36519, 36520, 36521, 36522
36525, 36526, 36527, 36528, 36529, 36532, 36533, 36534, 36535, 36536, 36539, 36540, 36541, 36542, 36543, 36546
36547, 36548, 36549, 36550, 36553, 36554, 36555, 36556, 36557, 36560, 36561, 36562, 36563, 36564, 36567, 36568
36569, 36570, 36571, 36574, 36575, 36576, 36577, 36578, 36581, 36582, 36583, 36584, 36585, 36588, 36589, 36590
36591, 36592, 36595, 36596, 36597, 36598, 36599, 36602, 36603, 36604, 36605, 36606, 36609, 36610, 36611, 36612
36613, 36616, 36617, 36618, 36619, 36620, 36623, 36624, 36625, 36626, 36627, 36630, 36631, 36632, 36633, 36634
36637, 36638, 36639, 36641, 36642, 36643, 36645, 36646, 36647, 36649, 36650, 36651, 36653, 36654, 36655, 36657
36658, 36659, 36661, 36662, 36663, 36665, 36666, 36667, 36669, 36670, 36671, 36673, 36674, 36675, 36677, 36678
36679, 36681, 36682, 36683, 36685, 36686, 36687, 36689, 36690, 36691, 36693, 36694, 36695, 36697, 36698, 36699
36701, 36702, 36703, 36705, 36706, 36707, 36709, 36710, 36711, 36713, 36714, 36715, 36717, 36718, 36719, 36721
36722, 36723, 36725, 36726, 36727, 36729, 36730, 36731, 36732, 36733, 36736, 36737, 36738, 36740, 36741, 36742
36744, 36745, 36746, 36748, 36749, 36750, 36752, 36753, 36754, 36756, 36757, 36758, 36760, 36761, 36762, 36764
36765, 36766, 36768, 36769, 36770, 36772, 36773, 36774, 36776, 36777, 36778, 36780, 36781, 36782, 36784, 36785
36786, 36788, 36789, 36790, 36792, 36793, 36794, 36796, 36797, 36798, 36800, 36801, 36802, 36804, 36805, 36806
36808, 36809, 36810, 36812, 36813, 36814, 36816, 36817, 36818, 36820, 36821, 36822, 36824, 36825, 36826, 36828
36829, 36830, 36831, 36832, 36835, 36836, 36837, 36839, 36840, 36841, 36843, 36844, 36845, 36847, 36848, 36849
36851, 36852, 36853, 36855, 36856, 36857, 36859, 36860, 36861, 36863, 36864, 36865, 36867, 36868, 36869, 36871
36872, 36873, 36875, 36876, 36877, 36879, 36880, 36881, 36883, 36884, 36885, 36887, 36888, 36889, 36891, 36892
** ... 39 like lines cut
*Elset, elset=ALL_C3D20
1, 2, 3, 4, 5, 6, 7, 8, 9, 10, 11, 12, 13, 14, 15, 16
17, 18, 19, 20, 21, 22, 23, 24, 25, 26, 27, 28, 29, 30, 31, 32
33, 34, 35, 36, 37, 38, 39, 40, 41, 42, 43, 44, 45, 46, 47, 48
49, 50, 51, 52, 53, 54, 55, 56, 57, 58, 59, 60, 61, 62, 63, 64
65, 66, 67, 68, 69, 70, 71, 72, 73, 74, 75, 76, 77, 78, 79, 80
81, 82, 83, 84, 85, 86, 87, 88, 89, 90, 91, 92, 93, 94, 95, 96
97, 98, 99, 100, 101, 102, 103, 104, 105, 106, 107, 108, 109, 110, 111, 112
113, 114, 115, 116, 117, 118, 119, 120, 121, 122, 123, 124, 125, 126, 127, 128
129, 130, 131, 132, 133, 134, 135, 136, 137, 138, 139, 140, 141, 142, 143, 144
145, 146, 147, 148, 149, 150, 151, 152, 153, 154, 155, 156, 157, 158, 159, 160
161, 162, 163, 164, 165, 166, 167, 168, 169, 170, 171, 172, 173, 174, 175, 176
177, 178, 179, 180, 181, 182, 183, 184, 185, 186, 187, 188, 189, 190, 191, 192
193, 194, 195, 196, 197, 198, 199, 200, 201, 202, 203, 204, 205, 206, 207, 208
209, 210, 211, 212, 213, 214, 215, 216, 217, 218, 219, 220, 221, 222, 223, 224
225, 226, 227, 228, 229, 230, 231, 232, 233, 234, 235, 236, 237, 238, 239, 240
241, 242, 243, 244, 245, 246, 247, 248, 249, 250, 251, 252, 253, 254, 255, 256
257, 258, 259, 260, 261, 262, 263, 264, 265, 266, 267, 268, 269, 270, 271, 272
273, 274, 275, 276, 277, 278, 279, 280, 281, 282, 283, 284, 285, 286, 287, 288
289, 290, 291, 292, 293, 294, 295, 296, 297, 298, 299, 300, 301, 302, 303, 304
305, 306, 307, 308, 309, 310, 311, 312, 313, 314, 315, 316, 317, 318, 319, 320
** ... 889 like lines cut
*Elset, elset=FINGERS
12721, 12722, 12723, 12724, 12725, 12726, 12727, 12728, 12729, 12730, 12731, 12732, 12733, 12734, 12735, 12736
12737, 12738, 12739, 12740, 12741, 12742, 12743, 12744, 12745, 12746, 12747, 12748, 12749, 12750, 12751, 12752
12753, 12754, 12755, 12756, 12757, 12758, 12759, 12760, 12761, 12762, 12763, 12764, 12765, 12766, 12767, 12768
12769, 12770, 12771, 12772, 12773, 12774, 12775, 12776, 12777, 12778, 12779, 12780, 12781, 12782, 12783, 12784
12785, 12786, 12787, 12788, 12789, 12790, 12791, 12792, 12793, 12794, 12795, 12796, 12797, 12798, 12799, 12800
12801, 12802, 12803, 12804, 12805, 12806, 12807, 12808, 12809, 12810, 12811, 12812, 12813, 12814, 12815, 12816
12817, 12818, 12819, 12820, 12821, 12822, 12823, 12824, 12825, 12826, 12827, 12828, 12829, 12830, 12831, 12832
12833, 12834, 12835, 12836, 12837, 12838, 12839, 12840, 12841, 12842, 12843, 12844, 12845, 12846, 12847, 12848
12849, 12850, 12851, 12852, 12853, 12854, 12855, 12856, 12857, 12858, 12859, 12860, 12861, 12862, 12863, 12864
12865, 12866, 12867, 12868, 12869, 12870, 12871, 12872, 12873, 12874, 12875, 12876, 12877, 12878, 12879, 12880
12881, 12882, 12883, 12884, 12885, 12886, 12887, 12888, 12889, 12890, 12891, 12892, 12893, 12894, 12895, 12896
12897, 12898, 12899, 12900, 12901, 12902, 12903, 12904, 12905, 12906, 12907, 12908, 12909, 12910, 12911, 12912
12913, 12914, 12915, 12916, 12917, 12918, 12919, 12920, 12921, 12922, 12923, 12924, 12925, 12926, 12927, 12928
12929, 12930, 12931, 12932, 12933, 12934, 12935, 12936, 12937, 12938, 12939, 12940, 12941, 12942, 12943, 12944
12945, 12946, 12947, 12948, 12949, 12950, 12951, 12952, 12953, 12954, 12955, 12956, 12957, 12958, 12959, 12960
12961, 12962, 12963, 12964, 12965, 12966, 12967, 12968, 12969, 12970, 12971, 12972, 12973, 12974, 12975, 12976
12977, 12978, 12979, 12980, 12981, 12982, 12983, 12984, 12985, 12986, 12987, 12988, 12989, 12990, 12991, 12992
12993, 12994, 12995, 12996, 12997, 12998, 12999, 13000, 13001, 13002, 13003, 13004, 13005, 13006, 13007, 13008
13009, 13010, 13011, 13012, 13013, 13014, 13015, 13016, 13017, 13018, 13019, 13020, 13021, 13022, 13023, 13024
13025, 13026, 13027, 13028, 13029, 13030, 13031, 13032, 13033, 13034, 13035, 13036, 13037, 13038, 13039, 13040
** ... 94 like lines cut
*Elset, elset=FINGER_1
12721, 12722, 12723, 12724, 12725, 12726, 12727, 12728, 12729, 12730, 12731, 12732, 12733, 12734, 12735, 12736
12737, 12738, 12739, 12740, 12741, 12742, 12743, 12744, 12745, 12746, 12747, 12748, 12749, 12750, 12751, 12752
12753, 12754, 12755, 12756, 12757, 12758, 12759, 12760, 12761, 12762, 12763, 12764, 12765, 12766, 12767, 12768
12769, 12770, 12771, 12772, 12773, 12774, 12775, 12776, 12777, 12778, 12779, 12780, 12781, 12782, 12783, 12784
12785, 12786, 12787, 12788, 12789, 12790, 12791, 12792, 12793, 12794, 12795, 12796, 12797, 12798, 12799, 12800
12801, 12802, 12803, 12804, 12805, 12806, 12807, 12808, 12809, 12810, 12811, 12812, 12813, 12814, 12815, 12816
12817, 12818, 12819, 12820, 12821, 12822, 12823, 12824, 12825, 12826, 12827, 12828, 12829, 12830, 12831, 12832
12833, 12834, 12835, 12836, 12837, 12838, 12839, 12840, 12841, 12842, 12843, 12844, 12845, 12846, 12847, 12848
12849, 12850, 12851, 12852, 12853, 12854, 12855, 12856, 12857, 12858, 12859, 12860, 12861, 12862, 12863, 12864
12865, 12866, 12867, 12868, 12869, 12870, 12871, 12872, 12873, 12874, 12875, 12876, 12877, 12878, 12879, 12880
12881, 12882, 12883, 12884, 12885, 12886, 12887, 12888, 12889, 12890, 12891, 12892, 12893, 12894, 12895, 12896
12897, 12898, 12899, 12900, 12901, 12902, 12903, 12904, 12905, 12906, 12907, 12908, 12909, 12910, 12911, 12912
12913, 12914, 12915, 12916, 12917, 12918, 12919, 12920, 12921, 12922, 12923, 12924, 12925, 12926, 12927, 12928
12929, 12930, 12931, 12932, 12933, 12934, 12935, 12936, 12937, 12938, 12939, 12940, 12941, 12942, 12943, 12944
12945, 12946, 12947, 12948, 12949, 12950, 12951, 12952, 12953, 12954, 12955, 12956, 12957, 12958, 12959, 12960
12961, 12962, 12963, 12964, 12965, 12966, 12967, 12968, 12969, 12970, 12971, 12972, 12973, 12974, 12975, 12976
12977, 12978, 12979, 12980, 12981, 12982, 12983, 12984, 12985, 12986, 12987, 12988, 12989, 12990, 12991, 12992
12993, 12994, 12995, 12996, 12997, 12998, 12999, 13000, 13001, 13002, 13003, 13004, 13005, 13006, 13007, 13008
13009, 13010, 13011, 13012, 13013, 13014, 13015, 13016, 13017, 13018, 13019, 13020, 13021, 13022, 13023, 13024
13025, 13026, 13027, 13028, 13029, 13030, 13031, 13032, 13033, 13034, 13035, 13036, 13037, 13038, 13039, 13040
** ... 6 like lines cut
*Elset, elset=FINGER_2
13129, 13130, 13131, 13132, 13133, 13134, 13135, 13136, 13137, 13138, 13139, 13140, 13141, 13142, 13143, 13144
13145, 13146, 13147, 13148, 13149, 13150, 13151, 13152, 13153, 13154, 13155, 13156, 13157, 13158, 13159, 13160
13161, 13162, 13163, 13164, 13165, 13166, 13167, 13168, 13169, 13170, 13171, 13172, 13173, 13174, 13175, 13176
13177, 13178, 13179, 13180, 13181, 13182, 13183, 13184, 13185, 13186, 13187, 13188, 13189, 13190, 13191, 13192
13193, 13194, 13195, 13196, 13197, 13198, 13199, 13200, 13201, 13202, 13203, 13204, 13205, 13206, 13207, 13208
13209, 13210, 13211, 13212, 13213, 13214, 13215, 13216, 13217, 13218, 13219, 13220, 13221, 13222, 13223, 13224
13225, 13226, 13227, 13228, 13229, 13230, 13231, 13232, 13233, 13234, 13235, 13236, 13237, 13238, 13239, 13240
13241, 13242, 13243, 13244, 13245, 13246, 13247, 13248, 13249, 13250, 13251, 13252, 13253, 13254, 13255, 13256
13257, 13258, 13259, 13260, 13261, 13262, 13263, 13264, 13265, 13266, 13267, 13268, 13269, 13270, 13271, 13272
13273, 13274, 13275, 13276, 13277, 13278, 13279, 13280, 13281, 13282, 13283, 13284, 13285, 13286, 13287, 13288
13289, 13290, 13291, 13292, 13293, 13294, 13295, 13296, 13297, 13298, 13299, 13300, 13301, 13302, 13303, 13304
13305, 13306, 13307, 13308, 13309, 13310, 13311, 13312, 13313, 13314, 13315, 13316, 13317, 13318, 13319, 13320
13321, 13322, 13323, 13324, 13325, 13326, 13327, 13328, 13329, 13330, 13331, 13332, 13333, 13334, 13335, 13336
13337, 13338, 13339, 13340, 13341, 13342, 13343, 13344, 13345, 13346, 13347, 13348, 13349, 13350, 13351, 13352
13353, 13354, 13355, 13356, 13357, 13358, 13359, 13360, 13361, 13362, 13363, 13364, 13365, 13366, 13367, 13368
13369, 13370, 13371, 13372, 13373, 13374, 13375, 13376, 13377, 13378, 13379, 13380, 13381, 13382, 13383, 13384
13385, 13386, 13387, 13388, 13389, 13390, 13391, 13392, 13393, 13394, 13395, 13396, 13397, 13398, 13399, 13400
13401, 13402, 13403, 13404, 13405, 13406, 13407, 13408, 13409, 13410, 13411, 13412, 13413, 13414, 13415, 13416
13417, 13418, 13419, 13420, 13421, 13422, 13423, 13424, 13425, 13426, 13427, 13428, 13429, 13430, 13431, 13432
13433, 13434, 13435, 13436, 13437, 13438, 13439, 13440, 13441, 13442, 13443, 13444, 13445, 13446, 13447, 13448
** ... 10 like lines cut
*Elset, elset=FINGER_3
13597, 13598, 13599, 13600, 13601, 13602, 13603, 13604, 13605, 13606, 13607, 13608, 13609, 13610, 13611, 13612
13613, 13614, 13615, 13616, 13617, 13618, 13619, 13620, 13621, 13622, 13623, 13624, 13625, 13626, 13627, 13628
13629, 13630, 13631, 13632, 13633, 13634, 13635, 13636, 13637, 13638, 13639, 13640, 13641, 13642, 13643, 13644
13645, 13646, 13647, 13648, 13649, 13650, 13651, 13652, 13653, 13654, 13655, 13656, 13657, 13658, 13659, 13660
13661, 13662, 13663, 13664, 13665, 13666, 13667, 13668, 13669, 13670, 13671, 13672, 13673, 13674, 13675, 13676
13677, 13678, 13679, 13680, 13681, 13682, 13683, 13684, 13685, 13686, 13687, 13688, 13689, 13690, 13691, 13692
13693, 13694, 13695, 13696, 13697, 13698, 13699, 13700, 13701, 13702, 13703, 13704, 13705, 13706, 13707, 13708
13709, 13710, 13711, 13712, 13713, 13714, 13715, 13716, 13717, 13718, 13719, 13720, 13721, 13722, 13723, 13724
13725, 13726, 13727, 13728, 13729, 13730, 13731, 13732, 13733, 13734, 13735, 13736, 13737, 13738, 13739, 13740
13741, 13742, 13743, 13744, 13745, 13746, 13747, 13748, 13749, 13750, 13751, 13752, 13753, 13754, 13755, 13756
13757, 13758, 13759, 13760, 13761, 13762, 13763, 13764, 13765, 13766, 13767, 13768, 13769, 13770, 13771, 13772
13773, 13774, 13775, 13776, 13777, 13778, 13779, 13780, 13781, 13782, 13783, 13784, 13785, 13786, 13787, 13788
13789, 13790, 13791, 13792, 13793, 13794, 13795, 13796, 13797, 13798, 13799, 13800, 13801, 13802, 13803, 13804
13805, 13806, 13807, 13808, 13809, 13810, 13811, 13812, 13813, 13814, 13815, 13816, 13817, 13818, 13819, 13820
13821, 13822, 13823, 13824, 13825, 13826, 13827, 13828, 13829, 13830, 13831, 13832, 13833, 13834, 13835, 13836
13837, 13838, 13839, 13840, 13841, 13842, 13843, 13844, 13845, 13846, 13847, 13848, 13849, 13850, 13851, 13852
13853, 13854, 13855, 13856, 13857, 13858, 13859, 13860, 13861, 13862, 13863, 13864, 13865, 13866, 13867, 13868
13869, 13870, 13871, 13872, 13873, 13874, 13875, 13876, 13877, 13878, 13879, 13880, 13881, 13882, 13883, 13884
13885, 13886, 13887, 13888, 13889, 13890, 13891, 13892, 13893, 13894, 13895, 13896, 13897, 13898, 13899, 13900
13901, 13902, 13903, 13904, 13905, 13906, 13907, 13908, 13909, 13910, 13911, 13912, 13913, 13914, 13915, 13916
** ... 12 like lines cut
*Elset, elset=FINGER_4
14101, 14102, 14103, 14104, 14105, 14106, 14107, 14108, 14109, 14110, 14111, 14112, 14113, 14114, 14115, 14116
14117, 14118, 14119, 14120, 14121, 14122, 14123, 14124, 14125, 14126, 14127, 14128, 14129, 14130, 14131, 14132
14133, 14134, 14135, 14136, 14137, 14138, 14139, 14140, 14141, 14142, 14143, 14144, 14145, 14146, 14147, 14148
14149, 14150, 14151, 14152, 14153, 14154, 14155, 14156, 14157, 14158, 14159, 14160, 14161, 14162, 14163, 14164
14165, 14166, 14167, 14168, 14169, 14170, 14171, 14172, 14173, 14174, 14175, 14176, 14177, 14178, 14179, 14180
14181, 14182, 14183, 14184, 14185, 14186, 14187, 14188, 14189, 14190, 14191, 14192, 14193, 14194, 14195, 14196
14197, 14198, 14199, 14200, 14201, 14202, 14203, 14204, 14205, 14206, 14207, 14208, 14209, 14210, 14211, 14212
14213, 14214, 14215, 14216, 14217, 14218, 14219, 14220, 14221, 14222, 14223, 14224, 14225, 14226, 14227, 14228
14229, 14230, 14231, 14232, 14233, 14234, 14235, 14236, 14237, 14238, 14239, 14240, 14241, 14242, 14243, 14244
14245, 14246, 14247, 14248, 14249, 14250, 14251, 14252, 14253, 14254, 14255, 14256, 14257, 14258, 14259, 14260
14261, 14262, 14263, 14264, 14265, 14266, 14267, 14268, 14269, 14270, 14271, 14272, 14273, 14274, 14275, 14276
14277, 14278, 14279, 14280, 14281, 14282, 14283, 14284, 14285, 14286, 14287, 14288, 14289, 14290, 14291, 14292
14293, 14294, 14295, 14296, 14297, 14298, 14299, 14300, 14301, 14302, 14303, 14304, 14305, 14306, 14307, 14308
14309, 14310, 14311, 14312, 14313, 14314, 14315, 14316, 14317, 14318, 14319, 14320, 14321, 14322, 14323, 14324
14325, 14326, 14327, 14328, 14329, 14330, 14331, 14332, 14333, 14334, 14335, 14336, 14337, 14338, 14339, 14340
14341, 14342, 14343, 14344, 14345, 14346, 14347, 14348, 14349, 14350, 14351, 14352, 14353, 14354, 14355, 14356
14357, 14358, 14359, 14360, 14361, 14362, 14363, 14364, 14365, 14366, 14367, 14368, 14369, 14370, 14371, 14372
14373, 14374, 14375, 14376, 14377, 14378, 14379, 14380, 14381, 14382, 14383, 14384, 14385, 14386, 14387, 14388
14389, 14390, 14391, 14392, 14393, 14394, 14395, 14396, 14397, 14398, 14399, 14400, 14401, 14402, 14403, 14404
14405, 14406, 14407, 14408, 14409, 14410, 14411, 14412, 14413, 14414, 14415, 14416, 14417, 14418, 14419, 14420
** ... 8 like lines cut
*Elset, elset=FLANGE
11137, 11138, 11139, 11140, 11141, 11142, 11143, 11144, 11145, 11146, 11147, 11148, 11149, 11150, 11151, 11152
11153, 11154, 11155, 11156, 11157, 11158, 11159, 11160, 11161, 11162, 11163, 11164, 11165, 11166, 11167, 11168
11169, 11170, 11171, 11172, 11173, 11174, 11175, 11176, 11177, 11178, 11179, 11180, 11181, 11182, 11183, 11184
11185, 11186, 11187, 11188, 11189, 11190, 11191, 11192, 11193, 11194, 11195, 11196, 11197, 11198, 11199, 11200
11201, 11202, 11203, 11204, 11205, 11206, 11207, 11208, 11209, 11210, 11211, 11212, 11213, 11214, 11215, 11216
11217, 11218, 11219, 11220, 11221, 11222, 11223, 11224, 11225, 11226, 11227, 11228, 11229, 11230, 11231, 11232
11233, 11234, 11235, 11236, 11237, 11238, 11239, 11240, 11241, 11242, 11243, 11244, 11245, 11246, 11247, 11248
11249, 11250, 11251, 11252, 11253, 11254, 11255, 11256, 11257, 11258, 11259, 11260, 11261, 11262, 11263, 11264
11265, 11266, 11267, 11268, 11269, 11270, 11271, 11272, 11273, 11274, 11275, 11276, 11277, 11278, 11279, 11280
11281, 11282, 11283, 11284, 11285, 11286, 11287, 11288, 11289, 11290, 11291, 11292, 11293, 11294, 11295, 11296
11297, 11298, 11299, 11300, 11301, 11302, 11303, 11304, 11305, 11306, 11307, 11308, 11309, 11310, 11311, 11312
11313, 11314, 11315, 11316, 11317, 11318, 11319, 11320, 11321, 11322, 11323, 11324, 11325, 11326, 11327, 11328
11329, 11330, 11331, 11332, 11333, 11334, 11335, 11336, 11337, 11338, 11339, 11340, 11341, 11342, 11343, 11344
11345, 11346, 11347, 11348, 11349, 11350, 11351, 11352, 11353, 11354, 11355, 11356, 11357, 11358, 11359, 11360
11361, 11362, 11363, 11364, 11365, 11366, 11367, 11368, 11369, 11370, 11371, 11372, 11373, 11374, 11375, 11376
11377, 11378, 11379, 11380, 11381, 11382, 11383, 11384, 11385, 11386, 11387, 11388, 11389, 11390, 11391, 11392
11393, 11394, 11395, 11396, 11397, 11398, 11399, 11400, 11401, 11402, 11403, 11404, 11405, 11406, 11407, 11408
11409, 11410, 11411, 11412, 11413, 11414, 11415, 11416, 11417, 11418, 11419, 11420, 11421, 11422, 11423, 11424
11425, 11426, 11427, 11428, 11429, 11430, 11431, 11432, 11433, 11434, 11435, 11436, 11437, 11438, 11439, 11440
11441, 11442, 11443, 11444, 11445, 11446, 11447, 11448, 11449, 11450, 11451, 11452, 11453, 11454, 11455, 11456
** ... 25 like lines cut
*Elset, elset=PALM
1, 2, 3, 4, 5, 6, 7, 8, 9, 10, 11, 12, 13, 14, 15, 16
17, 18, 19, 20, 21, 22, 23, 24, 25, 26, 27, 28, 29, 30, 31, 32
33, 34, 35, 36, 37, 38, 39, 40, 41, 42, 43, 44, 45, 46, 47, 48
49, 50, 51, 52, 53, 54, 55, 56, 57, 58, 59, 60, 61, 62, 63, 64
65, 66, 67, 68, 69, 70, 71, 72, 73, 74, 75, 76, 77, 78, 79, 80
81, 82, 83, 84, 85, 86, 87, 88, 89, 90, 91, 92, 93, 94, 95, 96
97, 98, 99, 100, 101, 102, 103, 104, 105, 106, 107, 108, 109, 110, 111, 112
113, 114, 115, 116, 117, 118, 119, 120, 121, 122, 123, 124, 125, 126, 127, 128
129, 130, 131, 132, 133, 134, 135, 136, 137, 138, 139, 140, 141, 142, 143, 144
145, 146, 147, 148, 149, 150, 151, 152, 153, 154, 155, 156, 157, 158, 159, 160
161, 162, 163, 164, 165, 166, 167, 168, 169, 170, 171, 172, 173, 174, 175, 176
177, 178, 179, 180, 181, 182, 183, 184, 185, 186, 187, 188, 189, 190, 191, 192
193, 194, 195, 196, 197, 198, 199, 200, 201, 202, 203, 204, 205, 206, 207, 208
209, 210, 211, 212, 213, 214, 215, 216, 217, 218, 219, 220, 221, 222, 223, 224
225, 226, 227, 228, 229, 230, 231, 232, 233, 234, 235, 236, 237, 238, 239, 240
241, 242, 243, 244, 245, 246, 247, 248, 249, 250, 251, 252, 253, 254, 255, 256
257, 258, 259, 260, 261, 262, 263, 264, 265, 266, 267, 268, 269, 270, 271, 272
273, 274, 275, 276, 277, 278, 279, 280, 281, 282, 283, 284, 285, 286, 287, 288
289, 290, 291, 292, 293, 294, 295, 296, 297, 298, 299, 300, 301, 302, 303, 304
305, 306, 307, 308, 309, 310, 311, 312, 313, 314, 315, 316, 317, 318, 319, 320
** ... 538 like lines cut
*Elset, elset=PALM_BACKPLATE
11857, 11858, 11859, 11860, 11861, 11862, 11863, 11864, 11865, 11866, 11867, 11868, 11869, 11870, 11871, 11872
11873, 11874, 11875, 11876, 11877, 11878, 11879, 11880, 11881, 11882, 11883, 11884, 11885, 11886, 11887, 11888
11889, 11890, 11891, 11892, 11893, 11894, 11895, 11896, 11897, 11898, 11899, 11900, 11901, 11902, 11903, 11904
11905, 11906, 11907, 11908, 11909, 11910, 11911, 11912, 11913, 11914, 11915, 11916, 11917, 11918, 11919, 11920
11921, 11922, 11923, 11924, 11925, 11926, 11927, 11928, 11929, 11930, 11931, 11932, 11933, 11934, 11935, 11936
11937, 11938, 11939, 11940, 11941, 11942, 11943, 11944, 11945, 11946, 11947, 11948, 11949, 11950, 11951, 11952
11953, 11954, 11955, 11956, 11957, 11958, 11959, 11960, 11961, 11962, 11963, 11964, 11965, 11966, 11967, 11968
11969, 11970, 11971, 11972, 11973, 11974, 11975, 11976, 11977, 11978, 11979, 11980, 11981, 11982, 11983, 11984
11985, 11986, 11987, 11988, 11989, 11990, 11991, 11992, 11993, 11994, 11995, 11996, 11997, 11998, 11999, 12000
12001, 12002, 12003, 12004, 12005, 12006, 12007, 12008, 12009, 12010, 12011, 12012, 12013, 12014, 12015, 12016
12017, 12018, 12019, 12020, 12021, 12022, 12023, 12024, 12025, 12026, 12027, 12028, 12029, 12030, 12031, 12032
12033, 12034, 12035, 12036, 12037, 12038, 12039, 12040, 12041, 12042, 12043, 12044, 12045, 12046, 12047, 12048
12049, 12050, 12051, 12052, 12053, 12054, 12055, 12056, 12057, 12058, 12059, 12060, 12061, 12062, 12063, 12064
12065, 12066, 12067, 12068, 12069, 12070, 12071, 12072, 12073, 12074, 12075, 12076, 12077, 12078, 12079, 12080
12081, 12082, 12083, 12084, 12085, 12086, 12087, 12088, 12089, 12090, 12091, 12092, 12093, 12094, 12095, 12096
12097, 12098, 12099, 12100, 12101, 12102, 12103, 12104, 12105, 12106, 12107, 12108, 12109, 12110, 12111, 12112
12113, 12114, 12115, 12116, 12117, 12118, 12119, 12120, 12121, 12122, 12123, 12124, 12125, 12126, 12127, 12128
12129, 12130, 12131, 12132, 12133, 12134, 12135, 12136, 12137, 12138, 12139, 12140, 12141, 12142, 12143, 12144
12145, 12146, 12147, 12148, 12149, 12150, 12151, 12152, 12153, 12154, 12155, 12156, 12157, 12158, 12159, 12160
12161, 12162, 12163, 12164, 12165, 12166, 12167, 12168, 12169, 12170, 12171, 12172, 12173, 12174, 12175, 12176
** ... 16 like lines cut
*Elset, elset=PALM_RIB
12433, 12434, 12435, 12436, 12437, 12438, 12439, 12440, 12441, 12442, 12443, 12444, 12445, 12446, 12447, 12448
12449, 12450, 12451, 12452, 12453, 12454, 12455, 12456, 12457, 12458, 12459, 12460, 12461, 12462, 12463, 12464
12465, 12466, 12467, 12468, 12469, 12470, 12471, 12472, 12473, 12474, 12475, 12476, 12477, 12478, 12479, 12480
12481, 12482, 12483, 12484, 12485, 12486, 12487, 12488, 12489, 12490, 12491, 12492, 12493, 12494, 12495, 12496
12497, 12498, 12499, 12500, 12501, 12502, 12503, 12504, 12505, 12506, 12507, 12508, 12509, 12510, 12511, 12512
12513, 12514, 12515, 12516, 12517, 12518, 12519, 12520, 12521, 12522, 12523, 12524, 12525, 12526, 12527, 12528
12529, 12530, 12531, 12532, 12533, 12534, 12535, 12536, 12537, 12538, 12539, 12540, 12541, 12542, 12543, 12544
12545, 12546, 12547, 12548, 12549, 12550, 12551, 12552, 12553, 12554, 12555, 12556, 12557, 12558, 12559, 12560
12561, 12562, 12563, 12564, 12565, 12566, 12567, 12568, 12569, 12570, 12571, 12572, 12573, 12574, 12575, 12576
12577, 12578, 12579, 12580, 12581, 12582, 12583, 12584, 12585, 12586, 12587, 12588, 12589, 12590, 12591, 12592
12593, 12594, 12595, 12596, 12597, 12598, 12599, 12600, 12601, 12602, 12603, 12604, 12605, 12606, 12607, 12608
12609, 12610, 12611, 12612, 12613, 12614, 12615, 12616, 12617, 12618, 12619, 12620, 12621, 12622, 12623, 12624
12625, 12626, 12627, 12628, 12629, 12630, 12631, 12632, 12633, 12634, 12635, 12636, 12637, 12638, 12639, 12640
12641, 12642, 12643, 12644, 12645, 12646, 12647, 12648, 12649, 12650, 12651, 12652, 12653, 12654, 12655, 12656
12657, 12658, 12659, 12660, 12661, 12662, 12663, 12664, 12665, 12666, 12667, 12668, 12669, 12670, 12671, 12672
12673, 12674, 12675, 12676, 12677, 12678, 12679, 12680, 12681, 12682, 12683, 12684, 12685, 12686, 12687, 12688
12689, 12690, 12691, 12692, 12693, 12694, 12695, 12696, 12697, 12698, 12699, 12700, 12701, 12702, 12703, 12704
12705, 12706, 12707, 12708, 12709, 12710, 12711, 12712, 12713, 12714, 12715, 12716, 12717, 12718, 12719, 12720
*Elset, elset=WRIST
8065, 8066, 8067, 8068, 8069, 8070, 8071, 8072, 8073, 8074, 8075, 8076, 8077, 8078, 8079, 8080
8081, 8082, 8083, 8084, 8085, 8086, 8087, 8088, 8089, 8090, 8091, 8092, 8093, 8094, 8095, 8096
8097, 8098, 8099, 8100, 8101, 8102, 8103, 8104, 8105, 8106, 8107, 8108, 8109, 8110, 8111, 8112
8113, 8114, 8115, 8116, 8117, 8118, 8119, 8120, 8121, 8122, 8123, 8124, 8125, 8126, 8127, 8128
8129, 8130, 8131, 8132, 8133, 8134, 8135, 8136, 8137, 8138, 8139, 8140, 8141, 8142, 8143, 8144
8145, 8146, 8147, 8148, 8149, 8150, 8151, 8152, 8153, 8154, 8155, 8156, 8157, 8158, 8159, 8160
8161, 8162, 8163, 8164, 8165, 8166, 8167, 8168, 8169, 8170, 8171, 8172, 8173, 8174, 8175, 8176
8177, 8178, 8179, 8180, 8181, 8182, 8183, 8184, 8185, 8186, 8187, 8188, 8189, 8190, 8191, 8192
8193, 8194, 8195, 8196, 8197, 8198, 8199, 8200, 8201, 8202, 8203, 8204, 8205, 8206, 8207, 8208
8209, 8210, 8211, 8212, 8213, 8214, 8215, 8216, 8217, 8218, 8219, 8220, 8221, 8222, 8223, 8224
8225, 8226, 8227, 8228, 8229, 8230, 8231, 8232, 8233, 8234, 8235, 8236, 8237, 8238, 8239, 8240
8241, 8242, 8243, 8244, 8245, 8246, 8247, 8248, 8249, 8250, 8251, 8252, 8253, 8254, 8255, 8256
8257, 8258, 8259, 8260, 8261, 8262, 8263, 8264, 8265, 8266, 8267, 8268, 8269, 8270, 8271, 8272
8273, 8274, 8275, 8276, 8277, 8278, 8279, 8280, 8281, 8282, 8283, 8284, 8285, 8286, 8287, 8288
8289, 8290, 8291, 8292, 8293, 8294, 8295, 8296, 8297, 8298, 8299, 8300, 8301, 8302, 8303, 8304
8305, 8306, 8307, 8308, 8309, 8310, 8311, 8312, 8313, 8314, 8315, 8316, 8317, 8318, 8319, 8320
8321, 8322, 8323, 8324, 8325, 8326, 8327, 8328, 8329, 8330, 8331, 8332, 8333, 8334, 8335, 8336
8337, 8338, 8339, 8340, 8341, 8342, 8343, 8344, 8345, 8346, 8347, 8348, 8349, 8350, 8351, 8352
8353, 8354, 8355, 8356, 8357, 8358, 8359, 8360, 8361, 8362, 8363, 8364, 8365, 8366, 8367, 8368
8369, 8370, 8371, 8372, 8373, 8374, 8375, 8376, 8377, 8378, 8379, 8380, 8381, 8382, 8383, 8384
** ... 172 like lines cut
*Elset, elset=FINGERTIP_LOAD_FACE_ELEMENTS
13117, 13118, 13119, 13120, 13121, 13122, 13123, 13124, 13125, 13126, 13127, 13128, 13585, 13586, 13587, 13588
13589, 13590, 13591, 13592, 13593, 13594, 13595, 13596, 14089, 14090, 14091, 14092, 14093, 14094, 14095, 14096
14097, 14098, 14099, 14100, 14533, 14534, 14535, 14536, 14537, 14538, 14539, 14540, 14541, 14542, 14543, 14544
*Surface, type=ELEMENT, name=FINGERTIP_LOAD_FACE
FINGERTIP_LOAD_FACE_ELEMENTS, S2
*Material, name=ALUMINUM_7075
*Density
2.81e-9
*Elastic
70000., 0.33
*Solid Section, elset=ALL_C3D20, material=ALUMINUM_7075
,
*Step, name=GripLoad
*Static
1., 1., 1e-05, 1.
*Boundary
WRIST_FIXED, ENCASTRE
*Dsload
FINGERTIP_LOAD_FACE, TRVEC, 0.109265734266, 0., -1., 0.
** Gravity: 9.81 m/s^2 = 9810 mm/s^2 in the global -Z direction.
*Dload
ALL_C3D20, GRAV, 9810., 0., 0., -1.
*Output, field
*Node Output
RF, U
*Element Output
S
*End Step
