*Heading
 Refined four-hole plate with CPS3 left and CPS4 right, at least 10x source element count
** Job name: MixedPlateCps3Cps4_Perforated_10xJob Model name: MixedPlateCps3Cps4_Perforated_10x
** Generated by: Abaqus/CAE 2024
*Preprint, echo=NO, model=NO, history=NO, contact=NO
**
** PARTS
**
*Part, name=PART-PERFORATED
*Node
      1,         170.,          25.
      2,         200.,           0.
      3,         170.,          75.
      4,         100.,           0.
      5,         200.,         100.
      6,         100.,         100.
      7,           0.,         100.
      8,           0.,           0.
      9,          50.,          25.
     10,          50.,          75.
     11,         100.,   98.4365005
     12,         100.,   96.6105728
     13,         100.,   94.9847412
     14,         100.,   93.3607025
     15,         100.,   91.7313919
     16,         100.,   90.0526428
     17,         100.,     88.36409
     18,         100.,   86.7145157
     19,         100.,   85.0324707
     20,         100.,   83.3509674
** ... 8719 like lines cut
*Element, type=CPS4
   1,  147,  148,  902,  888
   2,  148,  149,  903,  902
   3,  149,  150,  904,  903
   4,  150,  151,  905,  904
   5,  151,  152,  906,  905
   6,  152,  153,  639,  906
   7,  888,  902,  907,  887
   8,  902,  903,  908,  907
   9,  903,  904,  909,  908
  10,  904,  905,  910,  909
  11,  905,  906,  911,  910
  12,  906,  639,  640,  911
  13,  887,  907,  912,  886
  14,  907,  908,  913,  912
  15,  908,  909,  914,  913
  16,  909,  910,  915,  914
  17,  910,  911,  916,  915
  18,  911,  640,  641,  916
  19,  886,  912,  917,  885
  20,  912,  913,  918,  917
** ... 4142 like lines cut
*Element, type=CPS3
 4163, 5802,   75,   74
 4164, 6524, 4624, 6425
 4165, 6709, 6578, 4656
 4166, 7062, 6920, 4688
 4167, 7634, 7433, 4749
 4168, 7718, 7585, 7692
 4169, 8055, 7870, 4784
 4170, 8313, 8206, 8252
 4171, 8636, 8487, 8573
 4172, 8622, 8578, 4832
 4173, 8388, 8319, 4833
 4174, 8321, 8268, 4850
 4175, 8166, 8099, 4868
 4176, 8165, 4910, 8124
 4177, 7861, 7817, 4942
 4178, 7885, 7784, 4974
 4179, 7961, 5006, 7884
 4180, 8149, 8084, 5037
 4181, 8735, 7791, 6726
 4182, 6237, 6039, 6050
** ... 8571 like lines cut
*Nset, nset=SOLID, generate
    1,  8739,     1
*Elset, elset=SOLID, generate
     1,  12753,      1
*Elset, elset=LEFT_CPS3, generate
  4163,  12753,      1
*Elset, elset=RIGHT_CPS4, generate
    1,  4162,     1
** Section: Section-1-SOLID
*Solid Section, elset=SOLID, material=STEEL
,
*End Part
**  
**
** ASSEMBLY
**
*Assembly, name=Assembly
**  
*Instance, name=PART-1-1, part=PART-PERFORATED
*End Instance
**  
*Nset, nset=FIXED, instance=PART-1-1
   7,   8, 421, 422, 423, 424, 425, 426, 427, 428, 429, 430, 431, 432, 433, 434
 435, 436, 437, 438, 439, 440, 441, 442, 443, 444, 445, 446, 447, 448, 449, 450
 451, 452, 453, 454, 455, 456, 457, 458, 459, 460, 461, 462, 463, 464, 465, 466
 467, 468, 469, 470, 471, 472, 473, 474, 475, 476, 477, 478, 479, 480, 481, 482
 483, 484, 485, 486
*Elset, elset=RIGHT_EDGE_ELEMS, instance=PART-1-1
    1,    2,    3,    4,    5,    6,  201,  221,  241,  261,  281,  301,  321,  341,  361,  381
  382,  383,  384,  385,  386,  387,  388,  389,  390,  391,  392,  393,  394,  751,  771,  791
  811,  831,  851,  973,  994, 1015, 1036, 1057, 1078, 1099, 1100, 1101, 1102, 1103, 1104, 1105
 2074, 2094, 2114, 2134, 2154, 2174, 2175, 2176, 2177, 2178, 2179, 2180, 2181, 2182, 2183, 2184
*Elset, elset=_RIGHT_EDGE_S1, internal, instance=PART-1-1
    1,    2,    3,    4,    5,    6,  382,  383,  384,  385,  386,  387,  388,  389,  390,  391
  392,  393,  394, 1100, 1101, 1102, 1103, 1104, 1105, 2175, 2176, 2177, 2178, 2179, 2180, 2181
 2182, 2183, 2184
*Elset, elset=_RIGHT_EDGE_S2, internal, instance=PART-1-1
  201,  221,  241,  261,  281,  301,  321,  341,  361,  381,  751,  771,  791,  811,  831,  851
  973,  994, 1015, 1036, 1057, 1078, 1099, 2074, 2094, 2114, 2134, 2154, 2174
*Surface, type=ELEMENT, name=RIGHT_EDGE
_RIGHT_EDGE_S1, S1
_RIGHT_EDGE_S2, S2
*End Assembly
** 
** MATERIALS
** 
*Material, name=STEEL
*Elastic
210000., 0.3
** 
** BOUNDARY CONDITIONS
** 
** Name: Disp-BC-1 Type: Î»ÒÆ/×ª½Ç
*Boundary
FIXED, 1, 1
FIXED, 2, 2
** ----------------------------------------------------------------
** 
** STEP: LOAD
** 
*Step, name=LOAD, nlgeom=NO
*Static
1., 1., 1e-05, 1.
** 
** LOADS
** 
** Name: SURFFORCE-1   Type: Pressure
*Dsload
RIGHT_EDGE, P, -1.
** 
** OUTPUT REQUESTS
** 
*Restart, write, frequency=0
** 
** FIELD OUTPUT: F-Output-1
** 
*Output, field
*Node Output
RF, U
** 
** FIELD OUTPUT: F-Output-2
** 
*Element Output, directions=YES
S, 
*Output, history, frequency=0
*End Step
