*Heading
** Retired FEM-Python wire alias: standard Abaqus input uses B31.
*Node
1, 0.0, 0.0, 0.0
2, 1.0, 0.0, 0.0
*Element, type=BEAM2, elset=BEAM
1, 1, 2
*Material, name=STEEL
*Elastic
2.10E11, 0.30
*Beam Section, elset=BEAM, material=STEEL, section=RECT
0.20, 0.10
0.0, 1.0, 0.0
