*Heading
** Retired FEM-Python wire alias: standard Abaqus input uses T3D2.
*Node
1, 0.0, 0.0, 0.0
2, 1.0, 0.0, 0.0
*Element, type=TRUSS2, elset=TRUSS
1, 1, 2
*Material, name=STEEL
*Elastic
2.10E11, 0.30
*Solid Section, elset=TRUSS, material=STEEL
0.01
