*Part, name=BLOCK
*Node
1, 0., 0., 0.
2, 1., 0., 0.
3, 1., 1., 0.
4, 0., 1., 0.
5, 0., 0., 1.
6, 1., 0., 1.
7, 1., 1., 1.
8, 0., 1., 1.
*Element, type=C3D8
1, 1,2,3,4,5,6,7,8
2, 1,2,3,4,5,6,7,8
*Elset, elset=Set-1, generate
1, 2, 1
*Nset, nset=FIXED
1, 4, 5, 8
*Solid Section, elset=Set-1, material=STEEL
*End Part
*Assembly, name=Assembly
*Instance, name=BLOCK-1, part=BLOCK
*End Instance
*Elset, elset=Set-1, instance=BLOCK-1
1
*Nset, nset=FIXED, instance=BLOCK-1
1, 4, 5, 8
*End Assembly
*Material, name=STEEL
*Elastic
210000., 0.3
*Boundary
FIXED, 1, 3, 0.
*Step, name=Static-1
*Static
*End Step
