*Heading
** Job name: Cantilever_Beam Model name: Model-1
** Generated by: Abaqus/CAE 2023
*Preprint, echo=NO, model=NO, history=NO, contact=NO
**
** PARTS
**
*Part, name=Cantilever_Beam
*Node
      1,          10.,          10.,         100.
      2,          10.,           5.,         100.
      3,          10.,           0.,         100.
      4,          10.,          10.,          95.
      5,          10.,           5.,          95.
      6,          10.,           0.,          95.
      7,          10.,          10.,          90.
      8,          10.,           5.,          90.
      9,          10.,           0.,          90.
     10,          10.,          10.,          85.
     11,          10.,           5.,          85.
     12,          10.,           0.,          85.
     13,          10.,          10.,          80.
     14,          10.,           5.,          80.
     15,          10.,           0.,          80.
     16,          10.,          10.,          75.
     17,          10.,           5.,          75.
     18,          10.,           0.,          75.
     19,          10.,          10.,          70.
     20,          10.,           5.,          70.
** ... 601 like lines cut
*Element, type=C3D20
 1,  64,  65,  68,  67,   1,   2,   5,   4, 193, 192, 191, 190, 194, 195, 196,
    197, 199, 198, 200, 201
 2,  65,  66,  69,  68,   2,   3,   6,   5, 204, 203, 202, 192, 205, 206, 207,
    195, 198, 208, 209, 200
 3,  67,  68,  71,  70,   4,   5,   8,   7, 191, 212, 211, 210, 196, 213, 214,
    215, 201, 200, 216, 217
 4,  68,  69,  72,  71,   5,   6,   9,   8, 202, 219, 218, 212, 207, 220, 221,
    213, 200, 209, 222, 216
 5,  70,  71,  74,  73,   7,   8,  11,  10, 211, 225, 224, 223, 214, 226, 227,
    228, 217, 216, 229, 230
 6,  71,  72,  75,  74,   8,   9,  12,  11, 218, 232, 231, 225, 221, 233, 234,
    226, 216, 222, 235, 229
 7,  73,  74,  77,  76,  10,  11,  14,  13, 224, 238, 237, 236, 227, 239, 240,
    241, 230, 229, 242, 243
 8,  74,  75,  78,  77,  11,  12,  15,  14, 231, 245, 244, 238, 234, 246, 247,
    239, 229, 235, 248, 242
 9,  76,  77,  80,  79,  13,  14,  17,  16, 237, 251, 250, 249, 240, 252, 253,
    254, 243, 242, 255, 256
10,  77,  78,  81,  80,  14,  15,  18,  17, 244, 258, 257, 251, 247, 259, 260,
    252, 242, 248, 261, 255
** ... 140 like lines cut
*Nset, nset=Set-Steel, generate
   1,  621,    1
*Elset, elset=Set-Steel, generate
  1,  80,   1
** Section: Section
*Solid Section, elset=Set-Steel, material=Steel
,
*End Part
**
**
** ASSEMBLY
**
*Assembly, name=Assembly
**
*Instance, name=Cantilever_Beam-1, part=Cantilever_Beam
*End Instance
**
*Nset, nset=Set-Fixed, instance=Cantilever_Beam-1
   1,   2,   3,  64,  65,  66, 127, 128, 129, 193, 194, 198, 199, 204, 205, 208
 460, 461, 462, 467, 468
*Elset, elset=Set-Fixed, instance=Cantilever_Beam-1
  1,  2, 41, 42
*Elset, elset=_Surf-1_S5, internal, instance=Cantilever_Beam-1
 39, 40, 79, 80
*Surface, type=ELEMENT, name=Surf-Traction
_Surf-1_S5, S5
*End Assembly
**
** MATERIALS
**
*Material, name=Steel
*Density
 7.85e-09,
*Elastic
206000., 0.3
** ----------------------------------------------------------------
**
** STEP: Step-1
**
*Step, name=Step-1, nlgeom=NO
*Static
1., 1., 1e-05, 1.
**
** BOUNDARY CONDITIONS
**
** Name: BC-1 Type: Displacement/Rotation
*Boundary
Set-Fixed, ENCASTRE
**
** LOADS
**
** Name: Load-1   Type: Surface traction
*Dsload
Surf-Traction, TRSHR, 10., 0., -1., 0.
** Name: Load-Gravity   Type: Gravity
*Dload
, GRAV, 9810., 0., -1., 0.
**
** OUTPUT REQUESTS
**
*Restart, write, frequency=0
**
** FIELD OUTPUT: F-Output-1
**
*Output, field, variable=PRESELECT
**
** HISTORY OUTPUT: H-Output-1
**
*Output, history, variable=PRESELECT
*End Step
