*Heading
** Standard B31 RECT contract: a is local-y height, b is local-z width.
** The second section data record is the explicit approximate n1 direction.
** PX/PY/PZ are global line loads; P1/P2 are local n1/n2 line loads.
*Node
1, 0.0, 0.0, 0.0
2, 1.0, 0.0, 0.0
3, 2.0, 0.0, 0.0
*Element, type=B31, elset=BEAM
1, 1, 2
2, 2, 3
*Nset, nset=FIXED
1
*Material, name=STEEL
*Elastic
2.10E11, 0.30
*Beam Section, elset=BEAM, material=STEEL, section=RECT
0.20, 0.10
0.0, 1.0, 0.0
*Boundary
FIXED, 1, 6, 0.0
*Step, name=STANDARD_LINE_LOADS
*Static
*Dload
BEAM, PX, 11.0
BEAM, PY, -12.0
BEAM, PZ, 13.0
BEAM, P1, -14.0
BEAM, P2, 15.0
BEAM, P1, 1.5
*End Step
