*Heading
** Standard B31 CIRC contract: the geometry record contains the radius.
*Node
1, 0.0, 0.0, 0.0
2, 1.0, 0.0, 0.0
*Element, type=B31, elset=BEAM
1, 1, 2
*Material, name=STEEL
*Elastic
2.10E11, 0.30
*Beam Section, elset=BEAM, material=STEEL, section=CIRC
0.075
0.0, 1.0, 0.0
