*Heading
Standard B31 hollow circular cantilever under a global-Z uniform line load
*Node
1, 0.0, 0.0, 0.0
2, 0.5, 0.0, 0.0
3, 1.0, 0.0, 0.0
4, 1.5, 0.0, 0.0
5, 2.0, 0.0, 0.0
*Element, type=B31, elset=BEAM
1, 1, 2
2, 2, 3
3, 3, 4
4, 4, 5
*Nset, nset=FIXED
1
*Material, name=ALUMINUM
*Elastic
7.00e10, 0.33
*Beam Section, elset=BEAM, material=ALUMINUM, section=THICK PIPE
0.05, 0.01
0.0, 1.0, 0.0
*Boundary
FIXED, ENCASTRE
*Step, name=UniformLoad
*Static
*Dload
BEAM, PZ, -300.0
*Output, field
*Node Output
U, RF
*Element Output
S
*End Step
