*Heading
** Abaqus-correct connected arched steel canopy / factory-frame case generated through Abaqus MCP.
** Units: m, N, Pa. All members are B31 beam elements sharing physical joint nodes.
** Boundary condition: only the column bases are fixed. Snow load acts downward on roof ribs and purlins.
*Preprint, echo=NO, model=NO, history=NO, contact=NO
*Node
1, 0.000000, 0.000000, 6.000000
2, 3.000000, 0.000000, 7.530734
3, 6.000000, 0.000000, 8.828427
4, 9.000000, 0.000000, 9.695518
5, 12.000000, 0.000000, 10.000000
6, 15.000000, 0.000000, 9.695518
7, 18.000000, 0.000000, 8.828427
8, 21.000000, 0.000000, 7.530734
9, 24.000000, 0.000000, 6.000000
10, 0.000000, 5.000000, 6.000000
11, 3.000000, 5.000000, 7.530734
12, 6.000000, 5.000000, 8.828427
13, 9.000000, 5.000000, 9.695518
14, 12.000000, 5.000000, 10.000000
15, 15.000000, 5.000000, 9.695518
16, 18.000000, 5.000000, 8.828427
17, 21.000000, 5.000000, 7.530734
18, 24.000000, 5.000000, 6.000000
19, 0.000000, 10.000000, 6.000000
20, 3.000000, 10.000000, 7.530734
** ... 97 like lines cut
*Element, type=B31, elset=ALL_BEAMS_SOURCE
1, 82, 84
2, 84, 1
3, 83, 85
4, 85, 9
5, 86, 88
6, 88, 10
7, 87, 89
8, 89, 18
9, 90, 92
10, 92, 19
11, 91, 93
12, 93, 27
13, 94, 96
14, 96, 28
15, 95, 97
16, 97, 36
17, 98, 100
18, 100, 37
19, 99, 101
20, 101, 45
** ... 256 like lines cut
*Elset, Elset=COLUMNS
1, 2, 3, 4, 5, 6, 7, 8, 9, 10, 11, 12, 13, 14, 15, 16
17, 18, 19, 20, 21, 22, 23, 24, 25, 26, 27, 28, 29, 30, 31, 32
33, 34, 35, 36
*Elset, Elset=ARCH_RIBS
37, 38, 39, 40, 41, 42, 43, 44, 45, 46, 47, 48, 49, 50, 51, 52
53, 54, 55, 56, 57, 58, 59, 60, 61, 62, 63, 64, 65, 66, 67, 68
69, 70, 71, 72, 73, 74, 75, 76, 77, 78, 79, 80, 81, 82, 83, 84
85, 86, 87, 88, 89, 90, 91, 92, 93, 94, 95, 96, 97, 98, 99, 100
101, 102, 103, 104, 105, 106, 107, 108
*Elset, Elset=PURLINS
109, 110, 111, 112, 113, 114, 115, 116, 117, 118, 119, 120, 121, 122, 123, 124
125, 126, 127, 128, 129, 130, 131, 132, 133, 134, 135, 136, 137, 138, 139, 140
141, 142, 143, 144, 145, 146, 147, 148, 149, 150, 151, 152, 153, 154, 155, 156
157, 158, 159, 160, 161, 162, 163, 164, 165, 166, 167, 168, 169, 170, 171, 172
173, 174, 175, 176, 177, 178, 179, 180
*Elset, Elset=SIDE_RAILS
181, 182, 183, 184, 185, 186, 187, 188, 189, 190, 191, 192, 193, 194, 195, 196
197, 198, 199, 200, 201, 202, 203, 204, 205, 206, 207, 208, 209, 210, 211, 212
*Elset, Elset=ROOF_BRACING
213, 214, 215, 216, 217, 218, 219, 220, 221, 222, 223, 224, 225, 226, 227, 228
229, 230, 231, 232, 233, 234, 235, 236, 237, 238, 239, 240, 241, 242, 243, 244
245, 246, 247, 248, 249, 250, 251, 252, 253, 254, 255, 256, 257, 258, 259, 260
261, 262, 263, 264, 265, 266, 267, 268, 269, 270, 271, 272, 273, 274, 275, 276
*Elset, Elset=ROOF_SNOW
37, 38, 39, 40, 41, 42, 43, 44, 45, 46, 47, 48, 49, 50, 51, 52
53, 54, 55, 56, 57, 58, 59, 60, 61, 62, 63, 64, 65, 66, 67, 68
69, 70, 71, 72, 73, 74, 75, 76, 77, 78, 79, 80, 81, 82, 83, 84
85, 86, 87, 88, 89, 90, 91, 92, 93, 94, 95, 96, 97, 98, 99, 100
101, 102, 103, 104, 105, 106, 107, 108, 109, 110, 111, 112, 113, 114, 115, 116
117, 118, 119, 120, 121, 122, 123, 124, 125, 126, 127, 128, 129, 130, 131, 132
133, 134, 135, 136, 137, 138, 139, 140, 141, 142, 143, 144, 145, 146, 147, 148
149, 150, 151, 152, 153, 154, 155, 156, 157, 158, 159, 160, 161, 162, 163, 164
165, 166, 167, 168, 169, 170, 171, 172, 173, 174, 175, 176, 177, 178, 179, 180
*Elset, Elset=ALL_BEAMS
1, 2, 3, 4, 5, 6, 7, 8, 9, 10, 11, 12, 13, 14, 15, 16
17, 18, 19, 20, 21, 22, 23, 24, 25, 26, 27, 28, 29, 30, 31, 32
33, 34, 35, 36, 37, 38, 39, 40, 41, 42, 43, 44, 45, 46, 47, 48
49, 50, 51, 52, 53, 54, 55, 56, 57, 58, 59, 60, 61, 62, 63, 64
65, 66, 67, 68, 69, 70, 71, 72, 73, 74, 75, 76, 77, 78, 79, 80
81, 82, 83, 84, 85, 86, 87, 88, 89, 90, 91, 92, 93, 94, 95, 96
97, 98, 99, 100, 101, 102, 103, 104, 105, 106, 107, 108, 109, 110, 111, 112
113, 114, 115, 116, 117, 118, 119, 120, 121, 122, 123, 124, 125, 126, 127, 128
129, 130, 131, 132, 133, 134, 135, 136, 137, 138, 139, 140, 141, 142, 143, 144
145, 146, 147, 148, 149, 150, 151, 152, 153, 154, 155, 156, 157, 158, 159, 160
161, 162, 163, 164, 165, 166, 167, 168, 169, 170, 171, 172, 173, 174, 175, 176
177, 178, 179, 180, 181, 182, 183, 184, 185, 186, 187, 188, 189, 190, 191, 192
193, 194, 195, 196, 197, 198, 199, 200, 201, 202, 203, 204, 205, 206, 207, 208
209, 210, 211, 212, 213, 214, 215, 216, 217, 218, 219, 220, 221, 222, 223, 224
225, 226, 227, 228, 229, 230, 231, 232, 233, 234, 235, 236, 237, 238, 239, 240
241, 242, 243, 244, 245, 246, 247, 248, 249, 250, 251, 252, 253, 254, 255, 256
257, 258, 259, 260, 261, 262, 263, 264, 265, 266, 267, 268, 269, 270, 271, 272
273, 274, 275, 276
*Nset, Nset=BASE_SUPPORTS
82, 86, 90, 94, 98, 102, 106, 110, 114, 83, 87, 91, 95, 99, 103, 107
111, 115
*Nset, Nset=RIDGE_NODES
5, 14, 23, 32, 41, 50, 59, 68, 77
*Nset, Nset=EAVE_NODES
1, 10, 19, 28, 37, 46, 55, 64, 73, 9, 18, 27, 36, 45, 54, 63
72, 81
*Material, name=STEEL
*Density
7850.0
*Elastic
2.10E11, 0.30
*Beam Section, elset=COLUMNS, material=STEEL, section=RECT
0.45, 0.30
1.0, 0.0, 0.0
*Beam Section, elset=ARCH_RIBS, material=STEEL, section=RECT
0.38, 0.22
*Beam Section, elset=PURLINS, material=STEEL, section=RECT
0.18, 0.10
0.0, 0.0, 1.0
*Beam Section, elset=SIDE_RAILS, material=STEEL, section=RECT
0.16, 0.10
0.0, 0.0, 1.0
*Beam Section, elset=ROOF_BRACING, material=STEEL, section=RECT
0.08, 0.08
0.0, 0.0, 1.0
*Boundary
BASE_SUPPORTS, ENCASTRE
*Step, name=SnowLoad, nlgeom=NO
*Static
1.0, 1.0, 1.0E-05, 1.0
*Dload
ROOF_SNOW, PZ, -1800.0
*Output, field, variable=PRESELECT
*Node Output
U, RF
*Element Output, directions=YES
S, E
*End Step
