*Heading
** Standard Abaqus T3D2 contract: an explicit blank first field defaults area to 1.
*Node
1, 0.0, 0.0, 0.0
2, 1.0, 0.0, 0.0
*Element, type=T3D2, elset=TRUSS
1, 1, 2
*Material, name=STEEL
*Elastic
2.10D11, 0.30
*Solid Section, elset=TRUSS, material=STEEL
,
