*Heading
Phase 5 Abaqus B31 RECT 5x5 corner S12 held-out ratios
*Preprint, echo=NO, model=YES, history=NO, contact=NO
*Node
1, 0., 0., 0.
2, 2., 0., 0.
3, 0., 2., 0.
4, 2., 2., 0.
5, 0., 4., 0.
6, 2., 4., 0.
*Element, type=B31
10, 1, 2
20, 3, 4
30, 5, 6
*Elset, elset=RATIO_1_37
10
*Elset, elset=RATIO_5
20
*Elset, elset=RATIO_13
30
*Nset, nset=FIXED
1, 3, 5
*Nset, nset=TIPS
2, 4, 6
*Material, name=STEEL
*Elastic
210000000000., 0.3
*Beam Section, elset=RATIO_1_37, material=STEEL, section=RECT
0.2, 0.274
0., 1., 0.
*Beam Section, elset=RATIO_5, material=STEEL, section=RECT
0.2, 1.0
0., 1., 0.
*Beam Section, elset=RATIO_13, material=STEEL, section=RECT
0.2, 2.6
0., 1., 0.
*Boundary
FIXED, 1, 6, 0.
*Step, name=T_POS
*Static
*Cload, op=NEW
TIPS, 4, 500.
*Output, field
*Element Output
S
*End Step
