*Heading
Inclined standard B31 with a solid circular section and global-Z tip load
*Node
1, 0.0, 0.0, 0.0
2, 0.5, 0.5, 0.0
3, 1.0, 1.0, 0.0
4, 1.5, 1.5, 0.0
5, 2.0, 2.0, 0.0
*Element, type=B31, elset=BEAM
1, 1, 2
2, 2, 3
3, 3, 4
4, 4, 5
*Nset, nset=FIXED
1
*Nset, nset=TIP
5
*Material, name=STEEL
*Elastic
2.10e11, 0.3
*Beam Section, elset=BEAM, material=STEEL, section=CIRC
0.04
-1.0, 1.0, 0.0
*Boundary
FIXED, ENCASTRE
*Step, name=TipLoad
*Static
*Cload
TIP, 3, -800.0
*Output, field
*Node Output
U, RF
*Element Output
S
*End Step
